/*--------------------------------*- C++ -*----------------------------------*\
| =========                 |                                                 |
| \      /  F ield         | OpenFOAM: The Open Source CFD Toolbox           |
|  \    /   O peration     | Version:  3.0.1                                 |
|   \  /    A nd           | Web:      www.OpenFOAM.org                      |
|    \/     M anipulation  |                                                 |
\*---------------------------------------------------------------------------*/
FoamFile
{
    version     2.0;
    format      ascii;
    class       volScalarField;
    location    "0";
    object      O2;
}
// * * * * * * * * * * * * * * * * * * * * * * * * * * * * * * * * * * * * * //

dimensions      [0 0 0 0 0 0 0];

internalField   uniform 0.220068361;

boundaryField
{
    bottom
    {
        type            fixedValue;
        value           uniform 0.220068361;
    }
    top
    {
        type            inletOutlet;
        inletValue      uniform 0;
        value           uniform 0.220068361;
    }
   frontAndBack
    {
        type            empty;
    }
}

// ************************************************************************* //
