/*--------------------------------*- C++ -*----------------------------------*\
| =========                 |                                                 |
| \\      /  F ield         | OpenFOAM: The Open Source CFD Toolbox           |
|  \\    /   O peration     | Version:  2.3.1                                 |
|   \\  /    A nd           | Web:      www.OpenFOAM.org                      |
|    \\/     M anipulation  |                                                 |
\*---------------------------------------------------------------------------*/
FoamFile
{
    version     2.0;
    format      ascii;
    class       polyBoundaryMesh;
    location    "constant/polyMesh";
    object      boundary;
}
// * * * * * * * * * * * * * * * * * * * * * * * * * * * * * * * * * * * * * //

3
(
    bottom
    {
        type            patch;
        nFaces          1;
        startFace       999;
    }
    top
    {
        type            patch;
        nFaces          1;
        startFace       1000;
    }
    frontAndBack
    {
        type            empty;
        inGroups        1(empty);
        nFaces          4000;
        startFace       1001;
    }
)

// ************************************************************************* //
