/*--------------------------------*- C++ -*----------------------------------*\
| =========                 |                                                 |
| \\      /  F ield         | OpenFOAM: The Open Source CFD Toolbox           |
|  \\    /   O peration     | Version:  2.3.1                                 |
|   \\  /    A nd           | Web:      www.OpenFOAM.org                      |
|    \\/     M anipulation  |                                                 |
\*---------------------------------------------------------------------------*/
FoamFile
{
    version     2.0;
    format      ascii;
    class       dictionary;
    note        "The fits were computed between the temperatures of 300K and 3000K";
    location    "constant";
    object      thermophoreticProperties;
}
// * * * * * * * * * * * * * * * * * * * * * * * * * * * * * * * * * * * * * //

CH4
{
    CH4
    {
        a               0;
        b               0;
        c               0;
        d               0;
        chiSquare       0;
    }
    CH2O
    {
        a               0.0514099;
        b               -0.000303059;
        c               1.43098e-07;
        d               -2.23584e-11;
        chiSquare       0.000572511;
    }
    CH3O
    {
        a               0.0397232;
        b               -0.000306176;
        c               1.46455e-07;
        d               -2.30361e-11;
        chiSquare       0.000699786;
    }
    H
    {
        a               0.134926;
        b               0.000569101;
        c               -2.90615e-07;
        d               4.73161e-11;
        chiSquare       0.00381807;
    }
    O2
    {
        a               -0.0741287;
        b               -0.000182786;
        c               9.51184e-08;
        d               -1.56658e-11;
        chiSquare       0.000428778;
    }
    H2
    {
        a               0.319229;
        b               0.000204944;
        c               -1.13262e-07;
        d               1.93921e-11;
        chiSquare       0.00109568;
    }
    O
    {
        a               0.000388411;
        b               6.28203e-07;
        c               -3.32964e-10;
        d               5.54817e-14;
        chiSquare       5.79118e-09;
    }
    OH
    {
        a               -0.00832311;
        b               -1.34615e-05;
        c               7.13494e-09;
        d               -1.1889e-12;
        chiSquare       2.65922e-06;
    }
    H2O
    {
        a               0.0116965;
        b               -5.9081e-05;
        c               2.7573e-08;
        d               -4.28087e-12;
        chiSquare       1.81984e-05;
    }
    HO2
    {
        a               -0.077192;
        b               -0.00019034;
        c               9.90491e-08;
        d               -1.63132e-11;
        chiSquare       0.000464948;
    }
    H2O2
    {
        a               -0.080132;
        b               -0.000197589;
        c               1.02822e-07;
        d               -1.69345e-11;
        chiSquare       0.000501039;
    }
    C
    {
        a               0.0441685;
        b               6.15781e-05;
        c               -3.28645e-08;
        d               5.50071e-12;
        chiSquare       5.95869e-05;
    }
    CH
    {
        a               0.0296806;
        b               4.80044e-05;
        c               -2.54436e-08;
        d               4.23966e-12;
        chiSquare       3.38166e-05;
    }
    CH2
    {
        a               0.0103718;
        b               4.31199e-05;
        c               -2.20289e-08;
        d               3.58754e-12;
        chiSquare       2.19542e-05;
    }
    CH2(S)
    {
        a               0.0103718;
        b               4.31199e-05;
        c               -2.20289e-08;
        d               3.58754e-12;
        chiSquare       2.19542e-05;
    }
    CH3
    {
        a               0.0050177;
        b               2.08607e-05;
        c               -1.06572e-08;
        d               1.73559e-12;
        chiSquare       5.13829e-06;
    }
    CO
    {
        a               -0.0660195;
        b               -0.000141929;
        c               7.42789e-08;
        d               -1.22774e-11;
        chiSquare       0.000267671;
    }
    CO2
    {
        a               -0.00858944;
        b               -0.000378193;
        c               1.8708e-07;
        d               -2.9925e-11;
        chiSquare       0.00147196;
    }
    HCO
    {
        a               0.0487712;
        b               -0.000287504;
        c               1.35753e-07;
        d               -2.12108e-11;
        chiSquare       0.000515249;
    }
    CH2OH
    {
        a               0.0397232;
        b               -0.000306176;
        c               1.46455e-07;
        d               -2.30361e-11;
        chiSquare       0.000699786;
    }
    CH3OH
    {
        a               0.0536637;
        b               -0.000330158;
        c               1.56292e-07;
        d               -2.44527e-11;
        chiSquare       0.000705299;
    }
    C2H
    {
        a               -0.0130636;
        b               -0.000167004;
        c               8.33866e-08;
        d               -1.34045e-11;
        chiSquare       0.000301588;
    }
    C2H2
    {
        a               -0.0141807;
        b               -0.000181286;
        c               9.05176e-08;
        d               -1.45508e-11;
        chiSquare       0.000355375;
    }
    C2H3
    {
        a               -0.0152456;
        b               -0.000194899;
        c               9.73149e-08;
        d               -1.56435e-11;
        chiSquare       0.000410752;
    }
    C2H4
    {
        a               0.00528045;
        b               -0.000232855;
        c               1.14214e-07;
        d               -1.81905e-11;
        chiSquare       0.000526263;
    }
    C2H5
    {
        a               -0.00272948;
        b               -0.000237388;
        c               1.17192e-07;
        d               -1.87263e-11;
        chiSquare       0.00057267;
    }
    C2H6
    {
        a               -0.00287652;
        b               -0.000250176;
        c               1.23505e-07;
        d               -1.97352e-11;
        chiSquare       0.000636033;
    }
    HCCO
    {
        a               -0.0633451;
        b               -0.000287339;
        c               1.46421e-07;
        d               -2.38097e-11;
        chiSquare       0.000965793;
    }
    CH2CO
    {
        a               0.0609567;
        b               -0.000434845;
        c               2.07359e-07;
        d               -3.25648e-11;
        chiSquare       0.00135503;
    }
    HCCOH
    {
        a               0.0609567;
        b               -0.000434845;
        c               2.07359e-07;
        d               -3.25648e-11;
        chiSquare       0.00135503;
    }
    N
    {
        a               0.0208262;
        b               2.90352e-05;
        c               -1.54962e-08;
        d               2.59368e-12;
        chiSquare       1.32479e-05;
    }
    NH
    {
        a               0.00944513;
        b               1.52762e-05;
        c               -8.09679e-09;
        d               1.34917e-12;
        chiSquare       3.42452e-06;
    }
    NH2
    {
        a               0.000181388;
        b               2.93371e-07;
        c               -1.55494e-10;
        d               2.591e-14;
        chiSquare       1.26299e-09;
    }
    NH3
    {
        a               0.00480372;
        b               -2.96198e-05;
        c               1.40234e-08;
        d               -2.19417e-12;
        chiSquare       5.68705e-06;
    }
    NNH
    {
        a               -0.0885092;
        b               -0.000123396;
        c               6.58571e-08;
        d               -1.10229e-11;
        chiSquare       0.000239278;
    }
    NO
    {
        a               -0.07407;
        b               -0.00015788;
        c               8.26567e-08;
        d               -1.36654e-11;
        chiSquare       0.000332019;
    }
    NO2
    {
        a               -0.034425;
        b               -0.000361753;
        c               1.81109e-07;
        d               -2.91558e-11;
        chiSquare       0.00143202;
    }
    N2O
    {
        a               -0.014667;
        b               -0.000371127;
        c               1.84124e-07;
        d               -2.94973e-11;
        chiSquare       0.00144184;
    }
    HNO
    {
        a               -0.0650457;
        b               -0.000183348;
        c               9.49129e-08;
        d               -1.55813e-11;
        chiSquare       0.000419702;
    }
    CN
    {
        a               -0.0706501;
        b               -0.00010496;
        c               5.58511e-08;
        d               -9.33013e-12;
        chiSquare       0.000167878;
    }
    HCN
    {
        a               0.0511634;
        b               -0.000259964;
        c               1.2139e-07;
        d               -1.88521e-11;
        chiSquare       0.000355319;
    }
    H2CN
    {
        a               0.0545816;
        b               -0.000277332;
        c               1.295e-07;
        d               -2.01116e-11;
        chiSquare       0.000404383;
    }
    HCNN
    {
        a               -0.0633492;
        b               -0.000287357;
        c               1.46431e-07;
        d               -2.38112e-11;
        chiSquare       0.000965917;
    }
    HCNO
    {
        a               -0.0143856;
        b               -0.000364008;
        c               1.80592e-07;
        d               -2.89316e-11;
        chiSquare       0.00138706;
    }
    HOCN
    {
        a               -0.0143856;
        b               -0.000364008;
        c               1.80592e-07;
        d               -2.89316e-11;
        chiSquare       0.00138706;
    }
    HNCO
    {
        a               -0.0143856;
        b               -0.000364008;
        c               1.80592e-07;
        d               -2.89316e-11;
        chiSquare       0.00138706;
    }
    NCO
    {
        a               -0.0140887;
        b               -0.000356494;
        c               1.76864e-07;
        d               -2.83343e-11;
        chiSquare       0.00133038;
    }
    N2
    {
        a               -0.0663715;
        b               -0.00014147;
        c               7.40657e-08;
        d               -1.2245e-11;
        chiSquare       0.000266588;
    }
    AR
    {
        a               -0.0715834;
        b               -0.000267279;
        c               1.37004e-07;
        d               -2.23566e-11;
        chiSquare       0.000854367;
    }
    C3H7
    {
        a               0.00255769;
        b               -0.000383984;
        c               1.88925e-07;
        d               -3.01367e-11;
        chiSquare       0.00146445;
    }
    C3H8
    {
        a               0.00260854;
        b               -0.000391619;
        c               1.92681e-07;
        d               -3.07359e-11;
        chiSquare       0.00152327;
    }
    CH2CHO
    {
        a               0.0622402;
        b               -0.000444002;
        c               2.11725e-07;
        d               -3.32505e-11;
        chiSquare       0.00141269;
    }
    CH3CHO
    {
        a               0.0634807;
        b               -0.00045285;
        c               2.15945e-07;
        d               -3.39132e-11;
        chiSquare       0.00146957;
    }
}

CH2O
{
    CH4
    {
        a               -0.0514099;
        b               0.000303059;
        c               -1.43098e-07;
        d               2.23584e-11;
        chiSquare       0.000572511;
    }
    CH2O
    {
        a               0;
        b               0;
        c               0;
        d               0;
        chiSquare       0;
    }
    CH3O
    {
        a               0.005152;
        b               -1.47852e-05;
        c               5.74061e-09;
        d               -7.81317e-13;
        chiSquare       3.08619e-07;
    }
    H
    {
        a               -0.164045;
        b               0.000937755;
        c               -4.41908e-07;
        d               6.89727e-11;
        chiSquare       0.00532167;
    }
    O2
    {
        a               0.00315565;
        b               -2.98187e-05;
        c               1.43565e-08;
        d               -2.26551e-12;
        chiSquare       7.19353e-06;
    }
    H2
    {
        a               0.150702;
        b               0.000541744;
        c               -2.78036e-07;
        d               4.54041e-11;
        chiSquare       0.00352722;
    }
    O
    {
        a               -0.00618717;
        b               0.00026085;
        c               -1.27919e-07;
        d               2.03711e-11;
        chiSquare       0.000659348;
    }
    OH
    {
        a               -0.0056195;
        b               0.000236917;
        c               -1.16182e-07;
        d               1.85021e-11;
        chiSquare       0.000543909;
    }
    H2O
    {
        a               -0.0713866;
        b               0.000179047;
        c               -5.69337e-08;
        d               6.31817e-12;
        chiSquare       0.000199859;
    }
    HO2
    {
        a               0.00469213;
        b               -4.43373e-05;
        c               2.13466e-08;
        d               -3.36858e-12;
        chiSquare       1.59039e-05;
    }
    H2O2
    {
        a               0.00618024;
        b               -5.83989e-05;
        c               2.81167e-08;
        d               -4.43693e-12;
        chiSquare       2.75915e-05;
    }
    C
    {
        a               0.00443445;
        b               0.00035202;
        c               -1.73818e-07;
        d               2.77775e-11;
        chiSquare       0.0012609;
    }
    CH
    {
        a               -0.00802112;
        b               0.000338169;
        c               -1.65835e-07;
        d               2.64093e-11;
        chiSquare       0.00110816;
    }
    CH2
    {
        a               -0.0631131;
        b               0.000363797;
        c               -1.7153e-07;
        d               2.67803e-11;
        chiSquare       0.000807561;
    }
    CH2(S)
    {
        a               -0.0631131;
        b               0.000363797;
        c               -1.7153e-07;
        d               2.67803e-11;
        chiSquare       0.000807561;
    }
    CH3
    {
        a               -0.0578141;
        b               0.000333253;
        c               -1.57129e-07;
        d               2.45318e-11;
        chiSquare       0.000677648;
    }
    CO
    {
        a               -0.00261102;
        b               3.17479e-05;
        c               -1.53743e-08;
        d               2.4331e-12;
        chiSquare       8.70019e-06;
    }
    CO2
    {
        a               0.0525673;
        b               -0.000195319;
        c               8.69092e-08;
        d               -1.31057e-11;
        chiSquare       9.18367e-05;
    }
    HCO
    {
        a               -0.0051507;
        b               1.37226e-05;
        c               -4.86593e-09;
        d               6.09385e-13;
        chiSquare       5.84908e-07;
    }
    CH2OH
    {
        a               0.005152;
        b               -1.47852e-05;
        c               5.74061e-09;
        d               -7.81317e-13;
        chiSquare       3.08619e-07;
    }
    CH3OH
    {
        a               0.00989029;
        b               -2.67194e-05;
        c               9.6666e-09;
        d               -1.23456e-12;
        chiSquare       1.88604e-06;
    }
    C2H
    {
        a               -0.0229787;
        b               9.42747e-05;
        c               -4.28516e-08;
        d               6.5503e-12;
        chiSquare       3.02052e-05;
    }
    C2H2
    {
        a               -0.018013;
        b               7.39021e-05;
        c               -3.35915e-08;
        d               5.1348e-12;
        chiSquare       1.85611e-05;
    }
    C2H3
    {
        a               -0.0132228;
        b               5.42491e-05;
        c               -2.46584e-08;
        d               3.76929e-12;
        chiSquare       1.00018e-05;
    }
    C2H4
    {
        a               -0.0100444;
        b               3.45412e-05;
        c               -1.50015e-08;
        d               2.2255e-12;
        chiSquare       2.00027e-06;
    }
    C2H5
    {
        a               -0.0046181;
        b               1.683e-05;
        c               -7.44918e-09;
        d               1.1194e-12;
        chiSquare       6.27607e-07;
    }
    C2H6
    {
        a               0.000205434;
        b               -7.48676e-07;
        c               3.31373e-10;
        d               -4.97961e-14;
        chiSquare       1.24195e-09;
    }
    HCCO
    {
        a               0.028416;
        b               -0.000156177;
        c               7.33937e-08;
        d               -1.14382e-11;
        chiSquare       0.000141574;
    }
    CH2CO
    {
        a               0.0517627;
        b               -0.000145801;
        c               5.55294e-08;
        d               -7.43351e-12;
        chiSquare       3.55921e-05;
    }
    HCCOH
    {
        a               0.0517627;
        b               -0.000145801;
        c               5.55294e-08;
        d               -7.43351e-12;
        chiSquare       3.55921e-05;
    }
    N
    {
        a               0.00376454;
        b               0.000298841;
        c               -1.47559e-07;
        d               2.35812e-11;
        chiSquare       0.000908712;
    }
    NH
    {
        a               -0.00676629;
        b               0.000285265;
        c               -1.39892e-07;
        d               2.22778e-11;
        chiSquare       0.000788554;
    }
    NH2
    {
        a               -0.00617381;
        b               0.000260286;
        c               -1.27642e-07;
        d               2.03271e-11;
        chiSquare       0.000656502;
    }
    NH3
    {
        a               -0.084134;
        b               0.000227453;
        c               -8.23678e-08;
        d               1.05293e-11;
        chiSquare       0.000135576;
    }
    NNH
    {
        a               0.000176137;
        b               1.39823e-05;
        c               -6.90405e-09;
        d               1.10332e-12;
        chiSquare       1.9893e-06;
    }
    NO
    {
        a               -2.50019e-05;
        b               3.09901e-07;
        c               -1.50129e-10;
        d               2.37633e-14;
        chiSquare       8.32192e-10;
    }
    NO2
    {
        a               0.0515099;
        b               -0.000218106;
        c               9.96596e-08;
        d               -1.5283e-11;
        chiSquare       0.000176197;
    }
    N2O
    {
        a               0.051201;
        b               -0.000195917;
        c               8.7808e-08;
        d               -1.33037e-11;
        chiSquare       0.000103723;
    }
    HNO
    {
        a               0.00195754;
        b               -1.55011e-05;
        c               7.42202e-09;
        d               -1.168e-12;
        chiSquare       1.81661e-06;
    }
    CN
    {
        a               -0.00020711;
        b               5.98305e-05;
        c               -2.94551e-08;
        d               4.70002e-12;
        chiSquare       3.57066e-05;
    }
    HCN
    {
        a               -0.0150617;
        b               3.78776e-05;
        c               -1.21133e-08;
        d               1.35373e-12;
        chiSquare       8.68039e-06;
    }
    H2CN
    {
        a               -0.00982858;
        b               2.47173e-05;
        c               -7.90459e-09;
        d               8.83382e-13;
        chiSquare       3.69637e-06;
    }
    HCNN
    {
        a               0.0284223;
        b               -0.000156211;
        c               7.34097e-08;
        d               -1.14408e-11;
        chiSquare       0.000141636;
    }
    HCNO
    {
        a               0.048229;
        b               -0.000184545;
        c               8.27111e-08;
        d               -1.25314e-11;
        chiSquare       9.20311e-05;
    }
    HOCN
    {
        a               0.048229;
        b               -0.000184545;
        c               8.27111e-08;
        d               -1.25314e-11;
        chiSquare       9.20311e-05;
    }
    HNCO
    {
        a               0.048229;
        b               -0.000184545;
        c               8.27111e-08;
        d               -1.25314e-11;
        chiSquare       9.20311e-05;
    }
    NCO
    {
        a               0.0451116;
        b               -0.000172616;
        c               7.73648e-08;
        d               -1.17214e-11;
        chiSquare       8.05183e-05;
    }
    N2
    {
        a               -0.00255317;
        b               3.16468e-05;
        c               -1.5331e-08;
        d               2.42668e-12;
        chiSquare       8.67833e-06;
    }
    AR
    {
        a               0.0227912;
        b               -0.000140632;
        c               6.65844e-08;
        d               -1.04184e-11;
        chiSquare       0.000128277;
    }
    C3H7
    {
        a               0.051822;
        b               -0.000183094;
        c               8.0275e-08;
        d               -1.19865e-11;
        chiSquare       6.43294e-05;
    }
    C3H8
    {
        a               0.0550617;
        b               -0.00019454;
        c               8.52935e-08;
        d               -1.27358e-11;
        chiSquare       7.2624e-05;
    }
    CH2CHO
    {
        a               0.0553327;
        b               -0.000155857;
        c               5.93592e-08;
        d               -7.94618e-12;
        chiSquare       4.06709e-05;
    }
    CH3CHO
    {
        a               0.0588055;
        b               -0.000165638;
        c               6.30847e-08;
        d               -8.44491e-12;
        chiSquare       4.59363e-05;
    }
}

CH3O
{
    CH4
    {
        a               -0.0397232;
        b               0.000306176;
        c               -1.46455e-07;
        d               2.30361e-11;
        chiSquare       0.000699786;
    }
    CH2O
    {
        a               -0.005152;
        b               1.47852e-05;
        c               -5.74061e-09;
        d               7.81317e-13;
        chiSquare       3.08619e-07;
    }
    CH3O
    {
        a               0;
        b               0;
        c               0;
        d               0;
        chiSquare       0;
    }
    H
    {
        a               -0.122968;
        b               0.000906393;
        c               -4.32808e-07;
        d               6.80174e-11;
        chiSquare       0.00599502;
    }
    O2
    {
        a               0.000793218;
        b               -1.36149e-05;
        c               6.62902e-09;
        d               -1.05191e-12;
        chiSquare       1.68897e-06;
    }
    H2
    {
        a               0.1876;
        b               0.000494846;
        c               -2.5682e-07;
        d               4.22273e-11;
        chiSquare       0.00309709;
    }
    O
    {
        a               0.00877913;
        b               0.000256241;
        c               -1.27011e-07;
        d               2.0338e-11;
        chiSquare       0.000683835;
    }
    OH
    {
        a               0.00801872;
        b               0.000234047;
        c               -1.1601e-07;
        d               1.85764e-11;
        chiSquare       0.000570503;
    }
    H2O
    {
        a               -0.080933;
        b               0.000219125;
        c               -7.95139e-08;
        d               1.01843e-11;
        chiSquare       0.000123691;
    }
    HO2
    {
        a               0.00159678;
        b               -2.74074e-05;
        c               1.33446e-08;
        d               -2.11755e-12;
        chiSquare       6.84436e-06;
    }
    H2O2
    {
        a               0.00237545;
        b               -4.07725e-05;
        c               1.9852e-08;
        d               -3.15016e-12;
        chiSquare       1.51472e-05;
    }
    C
    {
        a               0.0255139;
        b               0.000338353;
        c               -1.68867e-07;
        d               2.71389e-11;
        chiSquare       0.00123535;
    }
    CH
    {
        a               0.011231;
        b               0.000327805;
        c               -1.62484e-07;
        d               2.60181e-11;
        chiSquare       0.00111914;
    }
    CH2
    {
        a               -0.0488555;
        b               0.000364471;
        c               -1.7412e-07;
        d               2.73703e-11;
        chiSquare       0.000975518;
    }
    CH2(S)
    {
        a               -0.0488555;
        b               0.000364471;
        c               -1.7412e-07;
        d               2.73703e-11;
        chiSquare       0.000975518;
    }
    CH3
    {
        a               -0.0449544;
        b               0.000335368;
        c               -1.60217e-07;
        d               2.51848e-11;
        chiSquare       0.000825949;
    }
    CO
    {
        a               -0.00140517;
        b               4.42351e-05;
        c               -2.16577e-08;
        d               3.44622e-12;
        chiSquare       1.87191e-05;
    }
    CO2
    {
        a               0.0430676;
        b               -0.000179552;
        c               8.18378e-08;
        d               -1.25309e-11;
        chiSquare       0.000114606;
    }
    HCO
    {
        a               -0.0104769;
        b               3.00666e-05;
        c               -1.16739e-08;
        d               1.58886e-12;
        chiSquare       1.27627e-06;
    }
    CH2OH
    {
        a               0;
        b               0;
        c               0;
        d               0;
        chiSquare       0;
    }
    CH3OH
    {
        a               0.00499808;
        b               -1.4545e-05;
        c               5.72187e-09;
        d               -7.87351e-13;
        chiSquare       2.68938e-07;
    }
    C2H
    {
        a               -0.0233668;
        b               0.000110168;
        c               -5.10593e-08;
        d               7.89611e-12;
        chiSquare       5.66494e-05;
    }
    C2H2
    {
        a               -0.0191006;
        b               9.00541e-05;
        c               -4.17372e-08;
        d               6.45449e-12;
        chiSquare       3.78523e-05;
    }
    C2H3
    {
        a               -0.0149825;
        b               7.06384e-05;
        c               -3.27387e-08;
        d               5.0629e-12;
        chiSquare       2.32899e-05;
    }
    C2H4
    {
        a               -0.0137614;
        b               5.22804e-05;
        c               -2.33921e-08;
        d               3.54025e-12;
        chiSquare       7.18841e-06;
    }
    C2H5
    {
        a               -0.00837352;
        b               3.40984e-05;
        c               -1.54785e-08;
        d               2.36409e-12;
        chiSquare       3.86609e-06;
    }
    C2H6
    {
        a               -0.00402661;
        b               1.6397e-05;
        c               -7.44319e-09;
        d               1.13683e-12;
        chiSquare       8.93993e-07;
    }
    HCCO
    {
        a               0.0194026;
        b               -0.000135199;
        c               6.44043e-08;
        d               -1.01091e-11;
        chiSquare       0.00012918;
    }
    CH2CO
    {
        a               0.047048;
        b               -0.000142926;
        c               5.81961e-08;
        d               -8.23262e-12;
        chiSquare       2.19714e-05;
    }
    HCCOH
    {
        a               0.047048;
        b               -0.000142926;
        c               5.81961e-08;
        d               -8.23262e-12;
        chiSquare       2.19714e-05;
    }
    N
    {
        a               0.0218257;
        b               0.000289442;
        c               -1.44456e-07;
        d               2.32158e-11;
        chiSquare       0.000904008;
    }
    NH
    {
        a               0.00955416;
        b               0.000278862;
        c               -1.38224e-07;
        d               2.21335e-11;
        chiSquare       0.000809903;
    }
    NH2
    {
        a               0.00876098;
        b               0.000255719;
        c               -1.26753e-07;
        d               2.02966e-11;
        chiSquare       0.00068105;
    }
    NH3
    {
        a               -0.0911331;
        b               0.000265394;
        c               -1.0447e-07;
        d               1.4383e-11;
        chiSquare       8.9119e-05;
    }
    NNH
    {
        a               0.00193521;
        b               2.56638e-05;
        c               -1.28084e-08;
        d               2.05846e-12;
        chiSquare       7.1071e-06;
    }
    NO
    {
        a               -0.000435755;
        b               1.45226e-05;
        c               -7.11283e-09;
        d               1.13201e-12;
        chiSquare       2.02344e-06;
    }
    NO2
    {
        a               0.040546;
        b               -0.00019898;
        c               9.26091e-08;
        d               -1.4356e-11;
        chiSquare       0.000197651;
    }