/*--------------------------------*- C++ -*----------------------------------*\
| =========                 |                                                 |
| \\      /  F ield         | OpenFOAM: The Open Source CFD Toolbox           |
|  \\    /   O peration     | Version:  2.3.1                                 |
|   \\  /    A nd           | Web:      www.OpenFOAM.org                      |
|    \\/     M anipulation  |                                                 |
\*---------------------------------------------------------------------------*/
FoamFile
{
    version     2.0;
    format      ascii;
    class       dictionary;
    note        "The fits were computed between the temperatures of 300K and 3000K";
    location    "constant";
    object      diffusivityProperties;
}
// * * * * * * * * * * * * * * * * * * * * * * * * * * * * * * * * * * * * * //

CH4
{
    CH4
    {
        d0              -26.2826;
        d1              4.10748;
        d2              -0.319009;
        d3              0.0138469;
        chiSquare       5.43171e-06;
    }
    CH2O
    {
        d0              -30.5613;
        d1              5.53689;
        d2              -0.485757;
        d3              0.0203418;
        chiSquare       5.21856e-06;
    }
    CH3O
    {
        d0              -30.151;
        d1              5.40867;
        d2              -0.473637;
        d3              0.0199933;
        chiSquare       6.72718e-06;
    }
    H
    {
        d0              -24.7835;
        d1              4.13681;
        d2              -0.322608;
        d3              0.0139944;
        chiSquare       5.73171e-06;
    }
    O2
    {
        d0              -25.5126;
        d1              3.80828;
        d2              -0.282309;
        d3              0.0123453;
        chiSquare       2.82311e-06;
    }
    H2
    {
        d0              -22.0148;
        d1              2.92031;
        d2              -0.171497;
        d3              0.00774308;
        chiSquare       3.66051e-06;
    }
    O
    {
        d0              -24.3834;
        d1              3.52985;
        d2              -0.248144;
        d3              0.0109501;
        chiSquare       1.72897e-06;
    }
    OH
    {
        d0              -24.3984;
        d1              3.52985;
        d2              -0.248144;
        d3              0.0109501;
        chiSquare       1.72897e-06;
    }
    H2O
    {
        d0              -30.4184;
        d1              5.59339;
        d2              -0.488797;
        d3              0.0203046;
        chiSquare       5.73152e-06;
    }
    HO2
    {
        d0              -25.5177;
        d1              3.80828;
        d2              -0.282309;
        d3              0.0123453;
        chiSquare       2.82311e-06;
    }
    H2O2
    {
        d0              -25.5226;
        d1              3.80828;
        d2              -0.282309;
        d3              0.0123453;
        chiSquare       2.82311e-06;
    }
    C
    {
        d0              -24.194;
        d1              3.43144;
        d2              -0.236019;
        d3              0.0104533;
        chiSquare       1.71621e-06;
    }
    CH
    {
        d0              -24.3291;
        d1              3.52985;
        d2              -0.248144;
        d3              0.0109501;
        chiSquare       1.72897e-06;
    }
    CH2
    {
        d0              -26.3214;
        d1              4.12871;
        d2              -0.321614;
        d3              0.0139536;
        chiSquare       5.64845e-06;
    }
    CH2S
    {
        d0              -26.3214;
        d1              4.12871;
        d2              -0.321614;
        d3              0.0139536;
        chiSquare       5.64845e-06;
    }
    CH3
    {
        d0              -26.3396;
        d1              4.12871;
        d2              -0.321614;
        d3              0.0139536;
        chiSquare       5.64845e-06;
    }
    CO
    {
        d0              -25.2908;
        d1              3.71843;
        d2              -0.271292;
        d3              0.0118955;
        chiSquare       2.30105e-06;
    }
    CO2
    {
        d0              -28.4034;
        d1              4.79437;
        d2              -0.402838;
        d3              0.0172699;
        chiSquare       1.08801e-05;
    }
    HCO
    {
        d0              -30.5553;
        d1              5.53689;
        d2              -0.485757;
        d3              0.0203418;
        chiSquare       5.21856e-06;
    }
    CH2OH
    {
        d0              -30.151;
        d1              5.40867;
        d2              -0.473637;
        d3              0.0199933;
        chiSquare       6.72718e-06;
    }
    CH3OH
    {
        d0              -30.5092;
        d1              5.51738;
        d2              -0.484143;
        d3              0.0203079;
        chiSquare       5.36222e-06;
    }
    C2H
    {
        d0              -27.8301;
        d1              4.59283;
        d2              -0.378415;
        d3              0.0162786;
        chiSquare       9.97746e-06;
    }
    C2H2
    {
        d0              -27.8377;
        d1              4.59283;
        d2              -0.378415;
        d3              0.0162786;
        chiSquare       9.97746e-06;
    }
    C2H3
    {
        d0              -27.8449;
        d1              4.59283;
        d2              -0.378415;
        d3              0.0162786;
        chiSquare       9.97746e-06;
    }
    C2H4
    {
        d0              -28.9013;
        d1              4.97415;
        d2              -0.424348;
        d3              0.0181319;
        chiSquare       1.08042e-05;
    }
    C2H5
    {
        d0              -28.6007;
        d1              4.83767;
        d2              -0.408048;
        d3              0.0174799;
        chiSquare       1.0945e-05;
    }
    C2H6
    {
        d0              -28.6067;
        d1              4.83767;
        d2              -0.408048;
        d3              0.0174799;
        chiSquare       1.0945e-05;
    }
    HCCO
    {
        d0              -26.2938;
        d1              4.17686;
        d2              -0.327522;
        d3              0.0141958;
        chiSquare       6.14586e-06;
    }
    CH2CO
    {
        d0              -30.3941;
        d1              5.44599;
        d2              -0.477438;
        d3              0.0201174;
        chiSquare       6.21096e-06;
    }
    HCCOH
    {
        d0              -30.3941;
        d1              5.44599;
        d2              -0.477438;
        d3              0.0201174;
        chiSquare       6.21096e-06;
    }
    N
    {
        d0              -24.2365;
        d1              3.43144;
        d2              -0.236019;
        d3              0.0104533;
        chiSquare       1.71621e-06;
    }
    NH
    {
        d0              -24.3362;
        d1              3.52985;
        d2              -0.248144;
        d3              0.0109501;
        chiSquare       1.72897e-06;
    }
    NH2
    {
        d0              -24.3527;
        d1              3.52985;
        d2              -0.248144;
        d3              0.0109501;
        chiSquare       1.72897e-06;
    }
    NH3
    {
        d0              -30.1752;
        d1              5.51634;
        d2              -0.484054;
        d3              0.0203058;
        chiSquare       5.37156e-06;
    }
    NNH
    {
        d0              -24.5353;
        d1              3.43144;
        d2              -0.236019;
        d3              0.0104533;
        chiSquare       1.71621e-06;
    }
    NO
    {
        d0              -25.2794;
        d1              3.71278;
        d2              -0.2706;
        d3              0.0118672;
        chiSquare       2.27342e-06;
    }
    NO2
    {
        d0              -27.609;
        d1              4.5358;
        d2              -0.371466;
        d3              0.0159951;
        chiSquare       9.56999e-06;
    }
    N2O
    {
        d0              -28.2412;
        d1              4.73103;
        d2              -0.395191;
        d3              0.0169606;
        chiSquare       1.06976e-05;
    }
    HNO
    {
        d0              -25.7572;
        d1              3.89438;
        d2              -0.292867;
        d3              0.0127768;
        chiSquare       3.45631e-06;
    }
    CN
    {
        d0              -24.6477;
        d1              3.47352;
        d2              -0.241209;
        d3              0.0106662;
        chiSquare       1.6987e-06;
    }
    HCN
    {
        d0              -30.7944;
        d1              5.59188;
        d2              -0.4888;
        d3              0.0203125;
        chiSquare       5.66529e-06;
    }
    H2CN
    {
        d0              -30.8012;
        d1              5.59188;
        d2              -0.4888;
        d3              0.0203125;
        chiSquare       5.66529e-06;
    }
    HCNN
    {
        d0              -26.2938;
        d1              4.17686;
        d2              -0.327522;
        d3              0.0141958;
        chiSquare       6.14586e-06;
    }
    HCNO
    {
        d0              -28.2381;
        d1              4.73103;
        d2              -0.395191;
        d3              0.0169606;
        chiSquare       1.06976e-05;
    }
    HOCN
    {
        d0              -28.2381;
        d1              4.73103;
        d2              -0.395191;
        d3              0.0169606;
        chiSquare       1.06976e-05;
    }
    HNCO
    {
        d0              -28.2381;
        d1              4.73103;
        d2              -0.395191;
        d3              0.0169606;
        chiSquare       1.06976e-05;
    }
    NCO
    {
        d0              -28.2349;
        d1              4.73103;
        d2              -0.395191;
        d3              0.0169606;
        chiSquare       1.06976e-05;
    }
    N2
    {
        d0              -25.2672;
        d1              3.71278;
        d2              -0.2706;
        d3              0.0118672;
        chiSquare       2.27342e-06;
    }
    AR
    {
        d0              -26.2329;
        d1              4.06687;
        d2              -0.314027;
        d3              0.0136428;
        chiSquare       5.02368e-06;
    }
    C3H7
    {
        d0              -29.0293;
        d1              4.90941;
        d2              -0.416642;
        d3              0.0178247;
        chiSquare       1.09386e-05;
    }
    C3H8
    {
        d0              -29.0325;
        d1              4.90941;
        d2              -0.416642;
        d3              0.0178247;
        chiSquare       1.09386e-05;
    }
    CH2CHO
    {
        d0              -30.3973;
        d1              5.44599;
        d2              -0.477438;
        d3              0.0201174;
        chiSquare       6.21096e-06;
    }
    CH3CHO
    {
        d0              -30.4005;
        d1              5.44599;
        d2              -0.477438;
        d3              0.0201174;
        chiSquare       6.21096e-06;
    }
}

CH2O
{
    CH4
    {
        d0              -30.5613;
        d1              5.53689;
        d2              -0.485757;
        d3              0.0203418;
        chiSquare       5.21856e-06;
    }
    CH2O
    {
        d0              -28.0237;
        d1              3.89768;
        d2              -0.206567;
        d3              0.00560734;
        chiSquare       0.000108437;
    }
    CH3O
    {
        d0              -29.1944;
        d1              4.45264;
        d2              -0.291325;
        d3              0.00978149;
        chiSquare       8.5033e-05;
    }
    H
    {
        d0              -28.9014;
        d1              5.55024;
        d2              -0.486766;
        d3              0.0203571;
        chiSquare       5.16817e-06;
    }
    O2
    {
        d0              -29.9446;
        d1              5.31683;
        d2              -0.463807;
        d3              0.0196484;
        chiSquare       7.97943e-06;
    }
    H2
    {
        d0              -25.1028;
        d1              4.04444;
        d2              -0.311274;
        d3              0.01353;
        chiSquare       4.80295e-06;
    }
    O
    {
        d0              -28.5316;
        d1              4.97841;
        d2              -0.424852;
        d3              0.0181519;
        chiSquare       1.0791e-05;
    }
    OH
    {
        d0              -28.5514;
        d1              4.97841;
        d2              -0.424852;
        d3              0.0181519;
        chiSquare       1.0791e-05;
    }
    H2O
    {
        d0              -26.528;
        d1              3.39385;
        d2              -0.130846;
        d3              0.00192337;
        chiSquare       0.000125297;
    }
    HO2
    {
        d0              -29.9521;
        d1              5.31683;
        d2              -0.463807;
        d3              0.0196484;
        chiSquare       7.97943e-06;
    }
    H2O2
    {
        d0              -29.9592;
        d1              5.31683;
        d2              -0.463807;
        d3              0.0196484;
        chiSquare       7.97943e-06;
    }
    C
    {
        d0              -28.1841;
        d1              4.83339;
        d2              -0.407534;
        d3              0.0174592;
        chiSquare       1.09409e-05;
    }
    CH
    {
        d0              -28.462;
        d1              4.97841;
        d2              -0.424852;
        d3              0.0181519;
        chiSquare       1.0791e-05;
    }
    CH2
    {
        d0              -30.5692;
        d1              5.5467;
        d2              -0.486508;
        d3              0.0203538;
        chiSquare       5.1766e-06;
    }
    CH2S
    {
        d0              -30.5692;
        d1              5.5467;
        d2              -0.486508;
        d3              0.0203538;
        chiSquare       5.1766e-06;
    }
    CH3
    {
        d0              -30.5926;
        d1              5.5467;
        d2              -0.486508;
        d3              0.0203538;
        chiSquare       5.1766e-06;
    }
    CO
    {
        d0              -29.6731;
        d1              5.22094;
        d2              -0.453085;
        d3              0.0192505;
        chiSquare       9.11409e-06;
    }
    CO2
    {
        d0              -31.1469;
        d1              5.46348;
        d2              -0.455034;
        d3              0.0181697;
        chiSquare       2.33943e-05;
    }
    HCO
    {
        d0              -28.0151;
        d1              3.89768;
        d2              -0.206567;
        d3              0.00560734;
        chiSquare       0.000108437;
    }
    CH2OH
    {
        d0              -29.1944;
        d1              4.45264;
        d2              -0.291325;
        d3              0.00978149;
        chiSquare       8.5033e-05;
    }
    CH3OH
    {
        d0              -28.2797;
        d1              4.0088;
        d2              -0.223407;
        d3              0.0064319;
        chiSquare       0.000104189;
    }
    C2H
    {
        d0              -31.2103;
        d1              5.57104;
        d2              -0.476246;
        d3              0.0193779;
        chiSquare       1.33209e-05;
    }
    C2H2
    {
        d0              -31.2209;
        d1              5.57104;
        d2              -0.476246;
        d3              0.0193779;
        chiSquare       1.33209e-05;
    }
    C2H3
    {
        d0              -31.231;
        d1              5.57104;
        d2              -0.476246;
        d3              0.0193779;
        chiSquare       1.33209e-05;
    }
    C2H4
    {
        d0              -30.8419;
        d1              5.29672;
        d2              -0.425933;
        d3              0.0166111;
        chiSquare       3.61812e-05;
    }
    C2H5
    {
        d0              -31.1466;
        d1              5.42991;
        d2              -0.448976;
        d3              0.0178394;
        chiSquare       2.61363e-05;
    }
    C2H6
    {
        d0              -31.1552;
        d1              5.42991;
        d2              -0.448976;
        d3              0.0178394;
        chiSquare       2.61363e-05;
    }
    HCCO
    {
        d0              -30.5596;
        d1              5.56613;
        d2              -0.487816;
        d3              0.0203629;
        chiSquare       5.19112e-06;
    }
    CH2CO
    {
        d0              -29.0774;
        d1              4.32311;
        d2              -0.271382;
        d3              0.00879354;
        chiSquare       9.10064e-05;
    }
    HCCOH
    {
        d0              -29.0774;
        d1              4.32311;
        d2              -0.271382;
        d3              0.00879354;
        chiSquare       9.10064e-05;
    }
    N
    {
        d0              -28.2377;
        d1              4.83339;
        d2              -0.407534;
        d3              0.0174592;
        chiSquare       1.09409e-05;
    }
    NH
    {
        d0              -28.4789;
        d1              4.97841;
        d2              -0.424852;
        d3              0.0181519;
        chiSquare       1.0791e-05;
    }
    NH2
    {
        d0              -28.5003;
        d1              4.97841;
        d2              -0.424852;
        d3              0.0181519;
        chiSquare       1.0791e-05;
    }
    NH3
    {
        d0              -27.9076;
        d1              4.01429;
        d2              -0.224241;
        d3              0.00647279;
        chiSquare       0.000103973;
    }
    NNH
    {
        d0              -28.5954;
        d1              4.83339;
        d2              -0.407534;
        d3              0.0174592;
        chiSquare       1.09409e-05;
    }
    NO
    {
        d0              -29.6632;
        d1              5.21447;
        d2              -0.45235;
        d3              0.0192226;
        chiSquare       9.18191e-06;
    }
    NO2
    {
        d0              -31.19;
        d1              5.58789;
        d2              -0.480308;
        d3              0.0196286;
        chiSquare       1.12448e-05;
    }
    N2O
    {
        d0              -31.2176;
        d1              5.50568;
        d2              -0.462902;
        d3              0.0186061;
        chiSquare       1.97575e-05;
    }
    HNO
    {
        d0              -30.1954;
        d1              5.39588;
        d2              -0.472304;
        d3              0.0199483;
        chiSquare       6.9059e-06;
    }
    CN
    {
        d0              -28.763;
        d1              4.89664;
        d2              -0.415116;
        d3              0.0177636;
        chiSquare       1.09505e-05;
    }
    HCN
    {
        d0              -26.9991;
        d1              3.41654;
        d2              -0.134237;
        d3              0.00208757;
        chiSquare       0.000124617;
    }
    H2CN
    {
        d0              -27.0086;
        d1              3.41654;
        d2              -0.134237;
        d3              0.00208757;
        chiSquare       0.000124617;
    }
    HCNN
    {
        d0              -30.5596;
        d1              5.56613;
        d2              -0.487816;
        d3              0.0203629;
        chiSquare       5.19112e-06;
    }
    HCNO
    {
        d0              -31.2129;
        d1              5.50568;
        d2              -0.462902;
        d3              0.0186061;
        chiSquare       1.97575e-05;
    }
    HOCN
    {
        d0              -31.2129;
        d1              5.50568;
        d2              -0.462902;
        d3              0.0186061;
        chiSquare       1.97575e-05;
    }
    HNCO
    {
        d0              -31.2129;
        d1              5.50568;
        d2              -0.462902;
        d3              0.0186061;
        chiSquare       1.97575e-05;
    }
    NCO
    {
        d0              -31.208;
        d1              5.50568;
        d2              -0.462902;
        d3              0.0186061;
        chiSquare       1.97575e-05;
    }
    N2
    {
        d0              -29.6457;
        d1              5.21447;
        d2              -0.45235;
        d3              0.0192226;
        chiSquare       9.18191e-06;
    }
    AR
    {
        d0              -30.6138;
        d1              5.51601;
        d2              -0.484025;
        d3              0.0203051;
        chiSquare       5.37462e-06;
    }
    C3H7
    {
        d0              -31.3041;
        d1              5.36532;
        d2              -0.437647;
        d3              0.0172309;
        chiSquare       3.11469e-05;
    }
    C3H8
    {
        d0              -31.3089;
        d1              5.36532;
        d2              -0.437647;
        d3              0.0172309;
        chiSquare       3.11469e-05;
    }
    CH2CHO
    {
        d0              -29.0823;
        d1              4.32311;
        d2              -0.271382;
        d3              0.00879354;
        chiSquare       9.10064e-05;
    }
    CH3CHO
    {
        d0              -29.087;
        d1              4.32311;
        d2              -0.271382;
        d3              0.00879354;
        chiSquare       9.10064e-05;
    }
}

CH3O
{
    CH4
    {
        d0              -30.151;
        d1              5.40867;
        d2              -0.473637;
        d3              0.0199933;
        chiSquare       6.72718e-06;
    }
    CH2O
    {
        d0              -29.1944;
        d1              4.45264;
        d2              -0.291325;
        d3              0.00978149;
        chiSquare       8.5033e-05;
    }
    CH3O
    {
        d0              -30.1088;
        d1              4.90038;
        d2              -0.361356;
        d3              0.0132891;
        chiSquare       6.15711e-05;
    }
    H
    {
        d0              -28.5119;
        d1              5.43011;
        d2              -0.475839;
        d3              0.0200661;
        chiSquare       6.4286e-06;
    }
    O2
    {
        d0              -29.3933;
        d1              5.12127;
        d2              -0.44163;
        d3              0.0188111;
        chiSquare       1.00222e-05;
    }
    H2
    {
        d0              -24.597;
        d1              3.85191;
        d2              -0.287659;
        d3              0.0125639;
        chiSquare       3.12896e-06;
    }
    O
    {
        d0              -27.9184;
        d1              4.75064;
        d2              -0.397561;
        d3              0.0170566;
        chiSquare       1.07648e-05;
    }
    OH
    {
        d0              -27.9384;
        d1              4.75064;
        d2              -0.397561;
        d3              0.0170566;
        chiSquare       1.07648e-05;
    }
    H2O
    {
        d0              -27.8884;
        d1              4.02597;
        d2              -0.226015;
        d3              0.0065598;
        chiSquare       0.000103514;
    }
    HO2
    {
        d0              -29.4008;
        d1              5.12127;
        d2              -0.44163;
        d3              0.0188111;
        chiSquare       1.00222e-05;
    }
    H2O2
    {
        d0              -29.4081;
        d1              5.12127;
        d2              -0.44163;
        d3              0.0188111;
        chiSquare       1.00222e-05;
    }
    C
    {
        d0              -27.565;
        d1              4.60252;
        d2              -0.379595;
        d3              0.0163267;
        chiSquare       1.00408e-05;
    }
    CH
    {
        d0              -27.8481;
        d1              4.75064;
        d2              -0.397561;
        d3              0.0170566;
        chiSquare       1.07648e-05;
    }
    CH2
    {
        d0              -30.1711;
        d1              5.42431;
        d2              -0.475247;
        d3              0.0200468;
        chiSquare       6.50908e-06;
    }
    CH2S
    {
        d0              -30.1711;
        d1              5.42431;
        d2              -0.475247;
        d3              0.0200468;
        chiSquare       6.50908e-06;
    }
    CH3
    {
        d0              -30.1947;
        d1              5.42431;
        d2              -0.475247;
        d3              0.0200468;
        chiSquare       6.50908e-06;
    }
    CO
    {
        d0              -29.0918;
        d1              5.01139;
        d2              -0.428755;
        d3              0.0183065;
        chiSquare       1.06696e-05;
    }
    CO2
    {
        d0              -31.2928;
        d1              5.58045;
        d2              -0.478444;
        d3              0.019512;
        chiSquare       1.22085e-05;
    }
    HCO
    {
        d0              -29.1856;
        d1              4.45264;
        d2              -0.291325;
        d3              0.00978149;
        chiSquare       8.5033e-05;
    }
    CH2OH
    {
        d0              -30.1088;
        d1              4.90038;
        d2              -0.361356;
        d3              0.0132891;
        chiSquare       6.15711e-05;
    }
    CH3OH
    {
        d0              -29.404;
        d1              4.54441;
        d2              -0.305526;
        d3              0.0104876;
        chiSquare       8.05941e-05;
    }
    C2H
    {
        d0              -31.1629;
        d1              5.60469;
        d2              -0.487689;
        d3              0.0201547;
        chiSquare       6.94839e-06;
    }
    C2H2
    {
        d0              -31.1737;
        d1              5.60469;
        d2              -0.487689;
        d3              0.0201547;
        chiSquare       6.94839e-06;
    }
    C2H3
    {
        d0              -31.1839;
        d1              5.60469;
        d2              -0.487689;
        d3              0.0201547;
        chiSquare       6.94839e-06;
    }
    C2H4
    {
        d0              -31.1751;
        d1              5.49628;
        d2              -0.461119;
        d3              0.0185063;
        chiSquare       2.05899e-05;
    }
    C2H5
    {
        d0              -31.3328;
        d1              5.56602;
        d2              -0.475123;
        d3              0.0193105;
        chiSquare       1.38813e-05;
    }
    C2H6
    {
        d0              -31.3416;
        d1              5.56602;
        d2              -0.475123;
        d3              0.0193105;
        chiSquare       1.38813e-05;
    }
    HCCO
    {
        d0              -30.2016;
        d1              5.45743;
        d2              -0.478571;
        d3              0.0201528;
        chiSquare       6.05744e-06;
    }
    CH2CO
    {
        d0              -30.0576;
        d1              4.79844;
        d2              -0.345226;
        d3              0.0124749;
        chiSquare       6.73326e-05;
    }
    HCCOH
    {
        d0              -30.0576;
        d1              4.79844;
        d2              -0.345226;
        d3              0.0124749;
        chiSquare       6.73326e-05;
    }
    N
    {
        d0              -27.6192;
        d1              4.60252;
        d2              -0.379595;
        d3              0.0163267;
        chiSquare       1.00408e-05;
    }
    NH
    {
        d0              -27.866;
        d1              4.75064;
        d2              -0.397561;
        d3              0.0170566;
        chiSquare       1.07648e-05;
    }
    NH2
    {
        d0              -27.8876;
        d1              4.75065;
        d2              -0.397562;
        d3              0.0170566;
        chiSquare       1.07649e-05;
    }
    NH3
    {
        d0              -29.0299;
        d1              4.54892;
        d2              -0.306226;
        d3              0.0105224;
        chiSquare       8.03713e-05;
    }
    NNH
    {
        d0              -27.9778;
        d1              4.60252;
        d2              -0.379595;
        d3              0.0163267;
        chiSquare       1.00408e-05;
    }
    NO
    {
        d0              -29.0808;
        d1              5.00415;
        d2              -0.4279;
        d3              0.0182727;
        chiSquare       1.06991e-05;
    }
    NO2
    {
        d0              -31.0977;
        d1              5.59963;
        d2              -0.48859;
        d3              0.0202554;
        chiSquare       6.13417e-06;
    }
    N2O
    {
        d0              -31.3011;
        d1              5.59545;
        d2              -0.482416;
        d3              0.0197646;
        chiSquare       1.01244e-05;
    }
    HNO
    {
        d0              -29.6781;
        d1              5.21662;
        d2              -0.452594;
        d3              0.0192319;
        chiSquare       9.15951e-06;
    }
    CN
    {
        d0              -28.1445;
        d1              4.66655;
        d2              -0.387377;
        d3              0.0166435;
        chiSquare       1.04129e-05;
    }
    HCN
    {
        d0              -28.3489;
        d1              4.04552;
        d2              -0.228986;
        d3              0.00670555;
        chiSquare       0.000102739;
    }
    H2CN
    {
        d0              -28.3586;
        d1              4.04552;
        d2              -0.228986;
        d3              0.00670555;
        chiSquare       0.000102739;
    }
    HCNN
    {
        d0              -30.2016;
        d1              5.45743;
        d2              -0.478571;
        d3              0.0201528;
        chiSquare       6.05744e-06;
    }
    HCNO
    {
        d0              -31.2964;
        d1              5.59545;
        d2              -0.482416;
        d3              0.0197646;
        chiSquare       1.01244e-05;
    }